12
Lattice="75.0 0.0 0.0 0.0 75.0 0.0 0.0 0.0 75.0" Properties=species:S:1:pos:R:3 pbc="F F F"
O       0.34376458       0.23988583       1.61715000
H       1.16430458      -0.26240417       1.89935000
C      -0.10618542      -0.29654417       0.33695000
H      -0.47812242      -1.32464417       0.50245000
C      -1.26179242       0.58408583      -0.12465000
H      -0.91331142       1.61848583      -0.24475000
H      -1.64359442       0.23438583      -1.09345000
H      -2.08307142       0.56828583       0.60045000
C       1.03458458      -0.33836417      -0.67845000
H       1.83393458      -1.01366417      -0.34835000
H       0.65326458      -0.68049417      -1.65165000
H       1.45622458       0.67098583      -0.81505000
